Wisconsin/Wisconsin_1664.RAW
 0,    100.00, 33, 0, 0, 60.00       / September 17, 2018 13:39:21; Simulator Version 20; BuildDate 2018_6_5


    1,'55071010100 ',  69.0000,3,   1,   1,   1,1.01999998,   0.000000, 1.10000, 0.98000, 1.10000, 0.98000
    2,'55101001501 ',  69.0000,2,   1,   1,   1,1.02000272, -12.263547, 1.10000, 0.98000, 1.10000, 0.98000
    3,'55059002602 ',  69.0000,2,   1,   1,   1,1.02000296,  -7.580765, 1.10000, 0.98000, 1.10000, 0.98000
    4,'55089630100 ',  69.0000,2,   1,   1,   1,1.02000189, -15.675465, 1.10000, 0.98000, 1.10000, 0.98000
    5,'55021970600 ',  69.0000,2,   1,   1,   1,1.02000177, -14.138741, 1.10000, 0.98000, 1.10000, 0.98000
    6,'55073001300 ',  69.0000,2,   1,   1,   1,1.02000082, -18.150550, 1.10000, 0.98000, 1.10000, 0.98000
    7,'55117001100 ',  69.0000,2,   1,   1,   1,1.02000093, -10.381316, 1.10000, 0.98000, 1.10000, 0.98000
    8,'55079160300 ',  69.0000,2,   1,   1,   1,1.02000368, -18.949631, 1.10000, 0.98000, 1.10000, 0.98000
    9,'55105001400 ',  69.0000,2,   1,   1,   1,1.02000225, -19.449117, 1.10000, 0.98000, 1.10000, 0.98000
   10,'55087013300 ',  69.0000,2,   1,   1,   1,1.02000034, -13.284860, 1.10000, 0.98000, 1.10000, 0.98000
   11,'55025011900 ',  69.0000,2,   1,   1,   1,1.02000201, -19.184328, 1.10000, 0.98000, 1.10000, 0.98000
   12,'55011960400 ',  69.0000,2,   1,   1,   1,1.02000237, -29.981310, 1.10000, 0.98000, 1.10000, 0.98000
   13,'55055100100 ',  69.0000,2,   1,   1,   1,1.02000237, -22.384121, 1.10000, 0.98000, 1.10000, 0.98000
   14,'55039040700 ',  69.0000,2,   1,   1,   1,1.02000093, -20.314045, 1.10000, 0.98000, 1.10000, 0.98000
   15,'55101001801 ',  69.0000,2,   1,   1,   1,1.02000308, -21.970755, 1.10000, 0.98000, 1.10000, 0.98000
   16,'55139003400 ',  69.0000,2,   1,   1,   1,1.02000034, -15.997309, 1.10000, 0.98000, 1.10000, 0.98000
   17,'55009000900 ',  69.0000,2,   1,   1,   1,1.02000022, -13.626888, 1.10000, 0.98000, 1.10000, 0.98000
   18,'55117010602 ',  69.0000,2,   1,   1,   1,1.02000070, -12.044488, 1.10000, 0.98000, 1.10000, 0.98000
   19,'55123960700 ',  69.0000,2,   1,   1,   1,1.02000225, -26.050249, 1.10000, 0.98000, 1.10000, 0.98000
   20,'55127000501 ',  69.0000,2,   1,   1,   1,1.00488496, -21.472534, 1.10000, 0.98000, 1.10000, 0.98000
   21,'55133200101 ',  69.0000,2,   1,   1,   1,1.01627612, -25.920331, 1.10000, 0.98000, 1.10000, 0.98000
   22,'55043960400 ',  69.0000,2,   1,   1,   1,1.02000189, -26.093023, 1.10000, 0.98000, 1.10000, 0.98000
   23,'55035000501 ',  69.0000,2,   1,   1,   1,1.02000165, -35.588096, 1.10000, 0.98000, 1.10000, 0.98000
   24,'55009010201 ',  69.0000,2,   1,   1,   1,1.02000022, -14.205034, 1.10000, 0.98000, 1.10000, 0.98000
   25,'55075961400 ',  69.0000,2,   1,   1,   1,1.02000010, -20.392447, 1.10000, 0.98000, 1.10000, 0.98000
   26,'55011960300 ',  69.0000,2,   1,   1,   1,1.02000237, -33.190201, 1.10000, 0.98000, 1.10000, 0.98000
   27,'55025000902 ',  69.0000,2,   1,   1,   1,1.02000201, -28.043374, 1.10000, 0.98000, 1.10000, 0.98000
   28,'55105002601 ',  69.0000,2,   1,   1,   1,1.02000237, -20.262120, 1.10000, 0.98000, 1.10000, 0.98000
   29,'55063000400 ',  69.0000,2,   1,   1,   1,1.00605428, -50.296471, 1.10000, 0.98000, 1.10000, 0.98000
   30,'55105002400 ',  69.0000,2,   1,   1,   1,1.02000237, -20.391856, 1.10000, 0.98000, 1.10000, 0.98000
   31,'55039042100 ',  69.0000,2,   1,   1,   1,1.02000058, -15.940886, 1.10000, 0.98000, 1.10000, 0.98000
   32,'55079186400 ',  69.0000,2,   1,   1,   1,0.99942756, -28.165791, 1.10000, 0.98000, 1.10000, 0.98000
   33,'55079015700 ',  69.0000,2,   1,   1,   1,1.00159609, -27.554808, 1.10000, 0.98000, 1.10000, 0.98000
   34,'55009020800 ',  69.0000,2,   1,   1,   1,1.02000022, -14.159170, 1.10000, 0.98000, 1.10000, 0.98000
   35,'55027960100 ',  69.0000,2,   1,   1,   1,1.02000177, -33.314473, 1.10000, 0.98000, 1.10000, 0.98000
   36,'55017010100 ',  69.0000,2,   1,   1,   1,1.02000165, -36.444503, 1.10000, 0.98000, 1.10000, 0.98000
   37,'55025001705 ',  69.0000,2,   1,   1,   1,1.02000201, -25.740458, 1.10000, 0.98000, 1.10000, 0.98000
   38,'55009000100 ',  69.0000,2,   1,   1,   1,1.02000022, -14.243764, 1.10000, 0.98000, 1.10000, 0.98000
   39,'55131470202 ',  69.0000,2,   1,   1,   1,1.01924980, -26.254438, 1.10000, 0.98000, 1.10000, 0.98000
   40,'55075961300 ',  69.0000,2,   1,   1,   1,1.02000010, -20.907667, 1.10000, 0.98000, 1.10000, 0.98000
   41,'55025001704 ',  69.0000,2,   1,   1,   1,1.02000201, -25.860310, 1.10000, 0.98000, 1.10000, 0.98000
   42,'55073001000 ',  69.0000,2,   1,   1,   1,1.03233600, -22.862923, 1.10000, 0.98000, 1.10000, 0.98000
   43,'55071000800 ',  69.0000,2,   1,   1,   1,1.02000022,  -9.777140, 1.10000, 0.98000, 1.10000, 0.98000
   44,'55141011300 ',  69.0000,2,   1,   1,   1,1.02000093, -25.228890, 1.10000, 0.98000, 1.10000, 0.98000
   45,'55017010400 ',  69.0000,2,   1,   1,   1,1.02000177, -38.633111, 1.10000, 0.98000, 1.10000, 0.98000
   46,'55039041900 ',  69.0000,2,   1,   1,   1,1.02000105, -18.457155, 1.10000, 0.98000, 1.10000, 0.98000
   47,'55087011800 ',  69.0000,2,   1,   1,   1,1.02000034, -15.438610, 1.10000, 0.98000, 1.10000, 0.98000
   48,'55141011000 ',  69.0000,2,   1,   1,   1,1.02000093, -26.169723, 1.10000, 0.98000, 1.10000, 0.98000
   49,'55087012200 ',  69.0000,2,   1,   1,   1,1.02000034, -15.341001, 1.10000, 0.98000, 1.10000, 0.98000
   50,'55017011000 ',  69.0000,2,   1,   1,   1,1.02000177, -42.142124, 1.10000, 0.98000, 1.10000, 0.98000
   51,'55025000600 ',  69.0000,2,   1,   1,   1,1.00486660, -28.866661, 1.10000, 0.98000, 1.10000, 0.98000
   52,'55071000500 ',  69.0000,2,   1,   1,   1,1.02000010,  -9.661046, 1.10000, 0.98000, 1.10000, 0.98000
   53,'55025001802 ',  69.0000,2,   1,   1,   1,1.01986253, -25.535649, 1.10000, 0.98000, 1.10000, 0.98000
   54,'55027961400 ',  69.0000,2,   1,   1,   1,0.99752361, -33.155753, 1.10000, 0.98000, 1.10000, 0.98000
   55,'55043960500 ', 138.0000,2,   1,   1,   1,1.02000189, -28.878863, 1.10000, 0.98000, 1.10000, 0.98000
   56,'55105001500 ',  69.0000,2,   1,   1,   1,1.01951599, -21.941708, 1.10000, 0.98000, 1.10000, 0.98000
   57,'55105003001 ',  69.0000,2,   1,   1,   1,1.01786673, -22.678217, 1.10000, 0.98000, 1.10000, 0.98000
   58,'55025002601 ',  69.0000,2,   1,   1,   1,1.02000201, -23.327133, 1.10000, 0.98000, 1.10000, 0.98000
   59,'55003950400 ',  69.0000,2,   1,   1,   1,1.04661894, -35.060898, 1.10000, 0.98000, 1.10000, 0.98000
   60,'55017010500 ',  69.0000,2,   1,   1,   1,1.02000165, -40.452161, 1.10000, 0.98000, 1.10000, 0.98000
   61,'55017010900 ',  69.0000,2,   1,   1,   1,1.02000153, -39.921653, 1.10000, 0.98000, 1.10000, 0.98000
   62,'55079186500 ',  69.0000,2,   1,   1,   1,0.99931163, -27.470821, 1.10000, 0.98000, 1.10000, 0.98000
   63,'55107960400 ',  69.0000,2,   1,   1,   1,1.02000165, -45.298767, 1.10000, 0.98000, 1.10000, 0.98000
   64,'55087012300 ',  69.0000,2,   1,   1,   1,1.02000034, -15.112062, 1.10000, 0.98000, 1.10000, 0.98000
   65,'55111000700 ',  69.0000,2,   1,   1,   1,0.99687839, -28.117177, 1.10000, 0.98000, 1.10000, 0.98000
   66,'55063000200 ',  69.0000,2,   1,   1,   1,0.98907024, -51.582138, 1.10000, 0.98000, 1.10000, 0.98000
   67,'55049950300 ', 138.0000,2,   1,   1,   1,1.02000201, -34.674019, 1.10000, 0.98000, 1.10000, 0.98000
   68,'55003950300 ',  69.0000,2,   1,   1,   1,1.04588234, -34.892732, 1.10000, 0.98000, 1.10000, 0.98000
   69,'55071005100 ',  69.0000,2,   1,   1,   1,1.02000010, -10.722234, 1.10000, 0.98000, 1.10000, 0.98000
   70,'55071000600 ',  69.0000,2,   1,   1,   1,1.01960433, -10.350384, 1.10000, 0.98000, 1.10000, 0.98000
   71,'55095960700 ',  69.0000,2,   1,   1,   1,0.99680209, -51.773367, 1.10000, 0.98000, 1.10000, 0.98000
   72,'55107960500 ',  69.0000,2,   1,   1,   1,1.02000153, -43.828784, 1.10000, 0.98000, 1.10000, 0.98000
   73,'55141011700 ',  69.0000,2,   1,   1,   1,0.99775708, -26.689613, 1.10000, 0.98000, 1.10000, 0.98000
   74,'55017010300 ',  69.0000,2,   1,   1,   1,1.02000165, -39.814672, 1.10000, 0.98000, 1.10000, 0.98000
   75,'55141010900 ',  69.0000,2,   1,   1,   1,1.02000093, -25.888751, 1.10000, 0.98000, 1.10000, 0.98000
   76,'55057100300 ',  69.0000,2,   1,   1,   1,1.01797998, -29.579541, 1.10000, 0.98000, 1.10000, 0.98000
   77,'55073001202 ', 230.0000,2,   1,   1,   1,1.05019784, -23.075799, 1.10000, 0.98000, 1.10000, 0.98000
   78,'55009020702 ',  69.0000,2,   1,   1,   1,1.02000022, -13.614119, 1.10000, 0.98000, 1.10000, 0.98000
   79,'55001950100 ',  69.0000,1,   1,   1,   1,1.00568295, -26.354384, 1.10000, 0.90000, 1.10000, 0.90000
   80,'55001950201 ',  69.0000,1,   1,   1,   1,1.01668537, -29.717286, 1.10000, 0.90000, 1.10000, 0.90000
   81,'55001950202 ',  69.0000,1,   1,   1,   1,1.00386572, -26.576041, 1.10000, 0.90000, 1.10000, 0.90000
   82,'55001950400 ',  69.0000,1,   1,   1,   1,0.98731530, -26.424895, 1.10000, 0.90000, 1.10000, 0.90000
   83,'55001950501 ',  69.0000,1,   1,   1,   1,0.99780822, -27.224989, 1.10000, 0.90000, 1.10000, 0.90000
   84,'55001950502 ',  69.0000,1,   1,   1,   1,0.98683810, -25.333815, 1.10000, 0.90000, 1.10000, 0.90000
   85,'55001950700 ',  69.0000,1,   1,   1,   1,0.98401302, -23.171922, 1.10000, 0.90000, 1.10000, 0.90000
   86,'55003940000 ',  69.0000,1,   1,   1,   1,1.04877782, -34.904903, 1.10000, 0.90000, 1.10000, 0.90000
   87,'55003950500 ', 138.0000,1,   1,   1,   1,1.04521608, -34.527983, 1.10000, 0.90000, 1.10000, 0.90000
   88,'55003950600 ', 138.0000,1,   1,   1,   1,1.03690922, -33.723926, 1.10000, 0.90000, 1.10000, 0.90000
   89,'55003950700 ',  69.0000,1,   1,   1,   1,1.06596076, -32.132417, 1.10000, 0.90000, 1.10000, 0.90000
   90,'55003950800 ', 138.0000,1,   1,   1,   1,1.03590798, -36.430607, 1.10000, 0.90000, 1.10000, 0.90000
   91,'55005000100 ',  69.0000,1,   1,   1,   1,0.97090161, -48.432513, 1.10000, 0.90000, 1.10000, 0.90000
   92,'55005000200 ',  69.0000,1,   1,   1,   1,1.00368738, -46.680788, 1.10000, 0.90000, 1.10000, 0.90000
   93,'55005000300 ',  69.0000,1,   1,   1,   1,0.98316175, -48.499975, 1.10000, 0.90000, 1.10000, 0.90000
   94,'55005000400 ',  69.0000,1,   1,   1,   1,0.97507113, -48.491075, 1.10000, 0.90000, 1.10000, 0.90000
   95,'55005000500 ',  69.0000,1,   1,   1,   1,0.98626900, -47.485674, 1.10000, 0.90000, 1.10000, 0.90000
   96,'55005000600 ',  69.0000,1,   1,   1,   1,0.98063070, -47.817622, 1.10000, 0.90000, 1.10000, 0.90000
   97,'55005000800 ',  69.0000,1,   1,   1,   1,0.98125350, -47.726828, 1.10000, 0.90000, 1.10000, 0.90000
   98,'55005000900 ',  69.0000,1,   1,   1,   1,0.96138954, -48.509711, 1.10000, 0.90000, 1.10000, 0.90000
   99,'55005001001 ',  69.0000,1,   1,   1,   1,0.99099886, -46.433303, 1.10000, 0.90000, 1.10000, 0.90000
  100,'55005001002 ',  69.0000,1,   1,   1,   1,0.99288768, -46.304041, 1.10000, 0.90000, 1.10000, 0.90000
  101,'55007960100 ', 138.0000,1,   1,   1,   1,1.04955840, -35.494567, 1.10000, 0.90000, 1.10000, 0.90000
  102,'55007960200 ',  69.0000,1,   1,   1,   1,1.05604839, -36.716556, 1.10000, 0.90000, 1.10000, 0.90000
  103,'55007960300 ',  69.0000,1,   1,   1,   1,1.04883766, -35.464845, 1.10000, 0.90000, 1.10000, 0.90000
  104,'55007960400 ',  69.0000,1,   1,   1,   1,1.03789389, -37.872767, 1.10000, 0.90000, 1.10000, 0.90000
  105,'55007960600 ',  69.0000,1,   1,   1,   1,1.03998256, -39.414214, 1.10000, 0.90000, 1.10000, 0.90000
  106,'55009000200 ',  69.0000,1,   1,   1,   1,1.01895452, -14.269297, 1.10000, 0.90000, 1.10000, 0.90000
  107,'55009000302 ',  69.0000,1,   1,   1,   1,1.01791668, -14.348329, 1.10000, 0.90000, 1.10000, 0.90000
  108,'55009000303 ', 230.0000,1,   1,   1,   1,1.01990116, -14.136460, 1.10000, 0.90000, 1.10000, 0.90000
  109,'55009000401 ',  69.0000,1,   1,   1,   1,1.01906598, -14.233560, 1.10000, 0.90000, 1.10000, 0.90000
  110,'55009000402 ',  69.0000,1,   1,   1,   1,1.00810802, -14.719305, 1.10000, 0.90000, 1.10000, 0.90000
  111,'55009000500 ', 230.0000,1,   1,   1,   1,1.02038634, -14.074924, 1.10000, 0.90000, 1.10000, 0.90000
  112,'55009000600 ',  69.0000,1,   1,   1,   1,1.00871420, -14.681119, 1.10000, 0.90000, 1.10000, 0.90000
  113,'55009000700 ',  69.0000,1,   1,   1,   1,1.00925410, -14.652723, 1.10000, 0.90000, 1.10000, 0.90000
  114,'55009000800 ',  69.0000,1,   1,   1,   1,1.01124477, -14.539190, 1.10000, 0.90000, 1.10000, 0.90000
  115,'55009001000 ', 138.0000,1,   1,   1,   1,1.01984262, -13.902742, 1.10000, 0.90000, 1.10000, 0.90000
  116,'55009001100 ',  69.0000,1,   1,   1,   1,1.01513803, -13.812429, 1.10000, 0.90000, 1.10000, 0.90000
  117,'55009001200 ', 345.0000,1,   1,   1,   1,1.02302086, -13.931365, 1.10000, 0.90000, 1.10000, 0.90000
  118,'55009001300 ',  69.0000,1,   1,   1,   1,1.01280344, -14.345378, 1.10000, 0.90000, 1.10000, 0.90000
  119,'55009001400 ',  69.0000,1,   1,   1,   1,1.01148283, -13.961999, 1.10000, 0.90000, 1.10000, 0.90000
  120,'55009001600 ',  69.0000,1,   1,   1,   1,1.00861871, -14.082884, 1.10000, 0.90000, 1.10000, 0.90000
  121,'55009001701 ',  69.0000,1,   1,   1,   1,1.01085830, -13.840974, 1.10000, 0.90000, 1.10000, 0.90000
  122,'55009001702 ',  69.0000,1,   1,   1,   1,1.01166523, -13.658175, 1.10000, 0.90000, 1.10000, 0.90000
  123,'55009001801 ',  69.0000,1,   1,   1,   1,0.99922293, -14.374148, 1.10000, 0.90000, 1.10000, 0.90000
  124,'55009001802 ',  69.0000,1,   1,   1,   1,1.00125253, -14.272955, 1.10000, 0.90000, 1.10000, 0.90000
  125,'55009002001 ',  69.0000,1,   1,   1,   1,1.00918078, -13.540530, 1.10000, 0.90000, 1.10000, 0.90000
  126,'55009002002 ',  69.0000,1,   1,   1,   1,1.00772929, -13.259453, 1.10000, 0.90000, 1.10000, 0.90000
  127,'55009002003 ', 138.0000,1,   1,   1,   1,1.01193726, -12.730324, 1.10000, 0.90000, 1.10000, 0.90000
  128,'55009010100 ',  69.0000,1,   1,   1,   1,1.01827216, -14.297462, 1.10000, 0.90000, 1.10000, 0.90000
  129,'55009010202 ',  69.0000,1,   1,   1,   1,1.01621497, -14.434741, 1.10000, 0.90000, 1.10000, 0.90000
  130,'55009010300 ',  69.0000,1,   1,   1,   1,1.00929058, -14.442691, 1.10000, 0.90000, 1.10000, 0.90000
  131,'55009020100 ',  69.0000,1,   1,   1,   1,0.99662209, -14.529716, 1.10000, 0.90000, 1.10000, 0.90000
  132,'55009020203 ',  69.0000,1,   1,   1,   1,0.97702843, -18.089607, 1.10000, 0.90000, 1.10000, 0.90000
  133,'55009020204 ',  69.0000,1,   1,   1,   1,0.97774053, -18.810602, 1.10000, 0.90000, 1.10000, 0.90000
  134,'55009020502 ',  69.0000,1,   1,   1,   1,0.98296171, -16.797768, 1.10000, 0.90000, 1.10000, 0.90000
  135,'55009020503 ',  69.0000,1,   1,   1,   1,0.97920901, -16.994544, 1.10000, 0.90000, 1.10000, 0.90000
  136,'55009020504 ',  69.0000,1,   1,   1,   1,0.97759885, -17.082518, 1.10000, 0.90000, 1.10000, 0.90000
  137,'55009020600 ',  69.0000,1,   1,   1,   1,0.99510568, -13.564128, 1.10000, 0.90000, 1.10000, 0.90000
  138,'55009020703 ',  69.0000,1,   1,   1,   1,1.00980508, -12.606191, 1.10000, 0.90000, 1.10000, 0.90000
  139,'55009020704 ',  69.0000,1,   1,   1,   1,1.00266433, -13.750112, 1.10000, 0.90000, 1.10000, 0.90000
  140,'55009020900 ',  69.0000,1,   1,   1,   1,1.01587081, -14.182291, 1.10000, 0.90000, 1.10000, 0.90000
  141,'55009021000 ',  69.0000,1,   1,   1,   1,1.01147330, -14.179702, 1.10000, 0.90000, 1.10000, 0.90000
  142,'55009021100 ',  69.0000,1,   1,   1,   1,1.01215971, -14.182169, 1.10000, 0.90000, 1.10000, 0.90000
  143,'55009021200 ',  69.0000,1,   1,   1,   1,1.00842810, -14.131672, 1.10000, 0.90000, 1.10000, 0.90000
  144,'55009021301 ',  69.0000,1,   1,   1,   1,1.01589394, -14.228307, 1.10000, 0.90000, 1.10000, 0.90000
  145,'55009021302 ',  69.0000,1,   1,   1,   1,1.00295460, -15.191748, 1.10000, 0.90000, 1.10000, 0.90000
  146,'55009021303 ',  69.0000,1,   1,   1,   1,1.01481736, -14.160148, 1.10000, 0.90000, 1.10000, 0.90000
  147,'55009021304 ',  69.0000,1,   1,   1,   1,1.00542521, -15.059852, 1.10000, 0.90000, 1.10000, 0.90000
  148,'55009021400 ',  69.0000,1,   1,   1,   1,0.99788165, -14.829157, 1.10000, 0.90000, 1.10000, 0.90000
  149,'55009021500 ',  69.0000,1,   1,   1,   1,0.99882114, -14.350521, 1.10000, 0.90000, 1.10000, 0.90000
  150,'55009021600 ',  69.0000,1,   1,   1,   1,0.98195636, -19.535799, 1.10000, 0.90000, 1.10000, 0.90000
  151,'55009940001 ',  69.0000,1,   1,   1,   1,0.99829239, -15.741834, 1.10000, 0.90000, 1.10000, 0.90000
  152,'55009940002 ',  69.0000,1,   1,   1,   1,1.01485538, -14.540672, 1.10000, 0.90000, 1.10000, 0.90000
  153,'55009940003 ',  69.0000,1,   1,   1,   1,1.01610065, -14.471600, 1.10000, 0.90000, 1.10000, 0.90000
  154,'55009940004 ',  69.0000,1,   1,   1,   1,1.01808476, -14.364815, 1.10000, 0.90000, 1.10000, 0.90000
  155,'55011960100 ',  69.0000,1,   1,   1,   1,1.01812482, -34.229377, 1.10000, 0.90000, 1.10000, 0.90000
  156,'55011960200 ',  69.0000,1,   1,   1,   1,1.00913036, -34.771585, 1.10000, 0.90000, 1.10000, 0.90000
  157,'55011960500 ',  69.0000,1,   1,   1,   1,0.96577269, -35.564969, 1.10000, 0.90000, 1.10000, 0.90000
  158,'55013970400 ',  69.0000,1,   1,   1,   1,1.03733969, -43.954624, 1.10000, 0.90000, 1.10000, 0.90000
  159,'55013970600 ',  69.0000,1,   1,   1,   1,0.97834820, -53.722505, 1.10000, 0.90000, 1.10000, 0.90000
  160,'55013970700 ',  69.0000,1,   1,   1,   1,1.00664556, -46.650298, 1.10000, 0.90000, 1.10000, 0.90000
  161,'55013970800 ',  69.0000,1,   1,   1,   1,0.99408680, -48.017832, 1.10000, 0.90000, 1.10000, 0.90000
  162,'55013970900 ',  69.0000,1,   1,   1,   1,0.98519868, -49.722872, 1.10000, 0.90000, 1.10000, 0.90000
  163,'55013971000 ',  69.0000,1,   1,   1,   1,0.98700917, -50.183691, 1.10000, 0.90000, 1.10000, 0.90000
  164,'55015020100 ',  69.0000,1,   1,   1,   1,1.00446665, -13.622870, 1.10000, 0.90000, 1.10000, 0.90000
  165,'55015020200 ',  69.0000,1,   1,   1,   1,1.00580657, -13.954689, 1.10000, 0.90000, 1.10000, 0.90000
  166,'55015020303 ',  69.0000,1,   1,   1,   1,1.01225972, -16.216952, 1.10000, 0.90000, 1.10000, 0.90000
  167,'55015020304 ',  69.0000,1,   1,   1,   1,1.01252484, -16.144701, 1.10000, 0.90000, 1.10000, 0.90000
  168,'55015020306 ', 138.0000,1,   1,   1,   1,1.01331186, -15.329270, 1.10000, 0.90000, 1.10000, 0.90000
  169,'55015020308 ', 138.0000,1,   1,   1,   1,1.01335359, -15.879713, 1.10000, 0.90000, 1.10000, 0.90000
  170,'55015020400 ',  69.0000,1,   1,   1,   1,1.00831985, -14.052985, 1.10000, 0.90000, 1.10000, 0.90000
  171,'55015020500 ',  69.0000,1,   1,   1,   1,1.01067007, -13.923902, 1.10000, 0.90000, 1.10000, 0.90000
  172,'55015020600 ', 230.0000,1,   1,   1,   1,1.01622736, -13.765411, 1.10000, 0.90000, 1.10000, 0.90000
  173,'55015020700 ',  69.0000,1,   1,   1,   1,1.01127565, -16.184565, 1.10000, 0.90000, 1.10000, 0.90000
  174,'55015020800 ', 230.0000,1,   1,   1,   1,1.01385736, -15.931705, 1.10000, 0.90000, 1.10000, 0.90000
  175,'55017010200 ',  69.0000,1,   1,   1,   1,1.01478326, -38.633971, 1.10000, 0.90000, 1.10000, 0.90000
  176,'55017010700 ',  69.0000,1,   1,   1,   1,1.01840854, -39.180598, 1.10000, 0.90000, 1.10000, 0.90000
  177,'55017010800 ',  69.0000,1,   1,   1,   1,0.99497432, -41.443720, 1.10000, 0.90000, 1.10000, 0.90000
  178,'55017011100 ',  69.0000,1,   1,   1,   1,0.98152220, -47.854856, 1.10000, 0.90000, 1.10000, 0.90000
  179,'55017011200 ', 138.0000,1,   1,   1,   1,1.01638651, -41.254944, 1.10000, 0.90000, 1.10000, 0.90000
  180,'55019950100 ',  69.0000,1,   1,   1,   1,0.99213177, -33.242619, 1.10000, 0.90000, 1.10000, 0.90000
  181,'55019950200 ',  69.0000,1,   1,   1,   1,0.97980225, -34.873071, 1.10000, 0.90000, 1.10000, 0.90000
  182,'55019950300 ',  69.0000,1,   1,   1,   1,0.98075724, -36.178815, 1.10000, 0.90000, 1.10000, 0.90000
  183,'55019950400 ',  69.0000,1,   1,   1,   1,0.96630669, -35.956482, 1.10000, 0.90000, 1.10000, 0.90000
  184,'55019950500 ',  69.0000,1,   1,   1,   1,0.98277336, -31.110176, 1.10000, 0.90000, 1.10000, 0.90000
  185,'55019950600 ',  69.0000,1,   1,   1,   1,0.95778126, -32.254025, 1.10000, 0.90000, 1.10000, 0.90000
  186,'55019950700 ',  69.0000,1,   1,   1,   1,0.95964170, -32.842879, 1.10000, 0.90000, 1.10000, 0.90000
  187,'55019950800 ',  69.0000,1,   1,   1,   1,0.95598030, -33.084108, 1.10000, 0.90000, 1.10000, 0.90000
  188,'55021970100 ',  69.0000,1,   1,   1,   1,0.95454770, -28.054556, 1.10000, 0.90000, 1.10000, 0.90000
  189,'55021970200 ',  69.0000,1,   1,   1,   1,0.96725208, -19.962620, 1.10000, 0.90000, 1.10000, 0.90000
  190,'55021970300 ',  69.0000,1,   1,   1,   1,0.98897105, -19.827983, 1.10000, 0.90000, 1.10000, 0.90000
  191,'55021970400 ',  69.0000,1,   1,   1,   1,1.00143301, -18.360320, 1.10000, 0.90000, 1.10000, 0.90000
  192,'55021970500 ',  69.0000,1,   1,   1,   1,0.99809426, -18.592776, 1.10000, 0.90000, 1.10000, 0.90000
  193,'55021970700 ',  69.0000,1,   1,   1,   1,1.00176835, -19.289800, 1.10000, 0.90000, 1.10000, 0.90000
  194,'55021970800 ',  69.0000,1,   1,   1,   1,0.99700654, -23.563258, 1.10000, 0.90000, 1.10000, 0.90000
  195,'55021970900 ',  69.0000,1,   1,   1,   1,1.00226617, -22.375556, 1.10000, 0.90000, 1.10000, 0.90000
  196,'55021971000 ',  69.0000,1,   1,   1,   1,0.99496442, -21.381441, 1.10000, 0.90000, 1.10000, 0.90000
  197,'55021971100 ',  69.0000,1,   1,   1,   1,0.99512446, -23.007846, 1.10000, 0.90000, 1.10000, 0.90000
  198,'55021971200 ',  69.0000,1,   1,   1,   1,1.00157726, -23.566685, 1.10000, 0.90000, 1.10000, 0.90000
  199,'55023960100 ',  69.0000,1,   1,   1,   1,1.01574385, -30.171558, 1.10000, 0.90000, 1.10000, 0.90000
  200,'55023960200 ',  69.0000,1,   1,   1,   1,0.98624808, -28.579217, 1.10000, 0.90000, 1.10000, 0.90000
...
0 / END OF BUS DATA, BEGIN LOAD DATA
    1,'1 ',1,   1,   1,     4.347,     1.743,     0.000,     0.000,     0.000,     0.000,   1,1, 0
    2,'1 ',1,   1,   1,     3.045,     1.281,     0.000,     0.000,     0.000,     0.000,   1,1, 0
    3,'1 ',1,   1,   1,    64.918,    21.980,     0.000,     0.000,     0.000,     0.000,   1,1, 0
    4,'1 ',1,   1,   1,    10.899,     3.920,     0.000,     0.000,     0.000,     0.000,   1,1, 0
    5,'1 ',1,   1,   1,     3.332,     1.498,     0.000,     0.000,     0.000,     0.000,   1,1, 0
    6,'1 ',1,   1,   1,     6.972,     3.101,     0.000,     0.000,     0.000,     0.000,   1,1, 0
    7,'1 ',1,   1,   1,     2.422,     1.085,     0.000,     0.000,     0.000,     0.000,   1,1, 0
    8,'1 ',1,   1,   1,    23.198,     7.777,     0.000,     0.000,     0.000,     0.000,   1,1, 0
    9,'1 ',1,   1,   1,    11.102,     4.095,     0.000,     0.000,     0.000,     0.000,   1,1, 0
   10,'1 ',1,   1,   1,     7.917,     3.290,     0.000,     0.000,     0.000,     0.000,   1,1, 0
   11,'1 ',1,   1,   1,     6.748,     2.765,     0.000,     0.000,     0.000,     0.000,   1,1, 0
   12,'1 ',1,   1,   1,     3.899,     1.561,     0.000,     0.000,     0.000,     0.000,   1,1, 0
   13,'1 ',1,   1,   1,    21.525,     6.769,     0.000,     0.000,     0.000,     0.000,   1,1, 0
   14,'1 ',1,   1,   1,    30.051,     9.569,     0.000,     0.000,     0.000,     0.000,   1,1, 0
   15,'1 ',1,   1,   1,    10.836,     3.654,     0.000,     0.000,     0.000,     0.000,   1,1, 0
   16,'1 ',1,   1,   1,    15.750,     5.054,     0.000,     0.000,     0.000,     0.000,   1,1, 0
   17,'1 ',1,   1,   1,    25.662,     7.343,     0.000,     0.000,     0.000,     0.000,   1,1, 0
   18,'1 ',1,   1,   1,    11.193,     3.682,     0.000,     0.000,     0.000,     0.000,   1,1, 0
   19,'1 ',1,   1,   1,     2.219,     1.078,     0.000,     0.000,     0.000,     0.000,   1,1, 0
   20,'1 ',1,   1,   1,     2.737,     1.253,     0.000,     0.000,     0.000,     0.000,   1,1, 0
   21,'1 ',1,   1,   1,     7.119,     3.045,     0.000,     0.000,     0.000,     0.000,   1,1, 0
   22,'1 ',1,   1,   1,     4.438,     1.932,     0.000,     0.000,     0.000,     0.000,   1,1, 0
   23,'1 ',1,   1,   1,     6.258,     2.723,     0.000,     0.000,     0.000,     0.000,   1,1, 0
   24,'1 ',1,   1,   1,     9.058,     3.164,     0.000,     0.000,     0.000,     0.000,   1,1, 0
   25,'1 ',1,   1,   1,    24.598,     7.553,     0.000,     0.000,     0.000,     0.000,   1,1, 0
   26,'1 ',1,   1,   1,     2.268,     0.987,     0.000,     0.000,     0.000,     0.000,   1,1, 0
   27,'1 ',1,   1,   1,     4.004,     1.848,     0.000,     0.000,     0.000,     0.000,   1,1, 0
   28,'1 ',1,   1,   1,    10.283,     4.326,     0.000,     0.000,     0.000,     0.000,   1,1, 0
   29,'1 ',1,   1,   1,     5.537,     2.464,     0.000,     0.000,     0.000,     0.000,   1,1, 0
   30,'1 ',1,   1,   1,     2.842,     1.260,     0.000,     0.000,     0.000,     0.000,   1,1, 0
   31,'1 ',1,   1,   1,     3.080,     1.463,     0.000,     0.000,     0.000,     0.000,   1,1, 0
   32,'1 ',1,   1,   1,    20.846,     7.259,     0.000,     0.000,     0.000,     0.000,   1,1, 0
   33,'1 ',1,   1,   1,     3.934,     1.589,     0.000,     0.000,     0.000,     0.000,   1,1, 0
   34,'1 ',1,   1,   1,     4.802,     2.009,     0.000,     0.000,     0.000,     0.000,   1,1, 0
   35,'1 ',1,   1,   1,    14.406,     4.613,     0.000,     0.000,     0.000,     0.000,   1,1, 0
   36,'1 ',1,   1,   1,    11.508,     4.200,     0.000,     0.000,     0.000,     0.000,   1,1, 0
   37,'1 ',1,   1,   1,     2.961,     1.372,     0.000,     0.000,     0.000,     0.000,   1,1, 0
   38,'1 ',1,   1,   1,    42.539,    16.093,     0.000,     0.000,     0.000,     0.000,   1,1, 0
   39,'1 ',1,   1,   1,     3.465,     1.680,     0.000,     0.000,     0.000,     0.000,   1,1, 0
   40,'1 ',1,   1,   1,     7.567,     2.625,     0.000,     0.000,     0.000,     0.000,   1,1, 0
   41,'1 ',1,   1,   1,     4.214,     1.841,     0.000,     0.000,     0.000,     0.000,   1,1, 0
   42,'1 ',1,   1,   1,    23.387,     6.874,     0.000,     0.000,     0.000,     0.000,   1,1, 0
   43,'1 ',1,   1,   1,     6.783,     2.492,     0.000,     0.000,     0.000,     0.000,   1,1, 0
   44,'1 ',1,   1,   1,     7.308,     3.108,     0.000,     0.000,     0.000,     0.000,   1,1, 0
   45,'1 ',1,   1,   1,     3.052,     1.428,     0.000,     0.000,     0.000,     0.000,   1,1, 0
   46,'1 ',1,   1,   1,     7.735,     3.094,     0.000,     0.000,     0.000,     0.000,   1,1, 0
   47,'1 ',1,   1,   1,     3.157,     1.274,     0.000,     0.000,     0.000,     0.000,   1,1, 0
   48,'1 ',1,   1,   1,    21.686,     7.231,     0.000,     0.000,     0.000,     0.000,   1,1, 0
   49,'1 ',1,   1,   1,     1.617,     0.735,     0.000,     0.000,     0.000,     0.000,   1,1, 0
   50,'1 ',1,   1,   1,    13.132,     4.676,     0.000,     0.000,     0.000,     0.000,   1,1, 0
   51,'1 ',1,   1,   1,    10.402,     4.074,     0.000,     0.000,     0.000,     0.000,   1,1, 0
   52,'1 ',1,   1,   1,    19.761,     6.237,     0.000,     0.000,     0.000,     0.000,   1,1, 0
   53,'1 ',1,   1,   1,     2.429,     1.099,     0.000,     0.000,     0.000,     0.000,   1,1, 0
   54,'1 ',1,   1,   1,    14.609,     5.796,     0.000,     0.000,     0.000,     0.000,   1,1, 0
   55,'1 ',1,   1,   1,     5.250,     1.974,     0.000,     0.000,     0.000,     0.000,   1,1, 0
   56,'1 ',1,   1,   1,     9.779,     3.220,     0.000,     0.000,     0.000,     0.000,   1,1, 0
   57,'1 ',1,   1,   1,     7.210,     2.758,     0.000,     0.000,     0.000,     0.000,   1,1, 0
   58,'1 ',1,   1,   1,     8.743,     3.360,     0.000,     0.000,     0.000,     0.000,   1,1, 0
   59,'1 ',1,   1,   1,     2.583,     1.120,     0.000,     0.000,     0.000,     0.000,   1,1, 0
   60,'1 ',1,   1,   1,    29.351,     9.520,     0.000,     0.000,     0.000,     0.000,   1,1, 0
   61,'1 ',1,   1,   1,     9.674,     3.283,     0.000,     0.000,     0.000,     0.000,   1,1, 0
   62,'1 ',1,   1,   1,     9.947,     3.297,     0.000,     0.000,     0.000,     0.000,   1,1, 0
   63,'1 ',1,   1,   1,     2.905,     1.148,     0.000,     0.000,     0.000,     0.000,   1,1, 0
   64,'1 ',1,   1,   1,    14.756,     4.025,     0.000,     0.000,     0.000,     0.000,   1,1, 0
   65,'1 ',1,   1,   1,     8.015,     2.912,     0.000,     0.000,     0.000,     0.000,   1,1, 0
   66,'1 ',1,   1,   1,    37.989,    14.042,     0.000,     0.000,     0.000,     0.000,   1,1, 0
   67,'1 ',1,   1,   1,     3.045,     1.365,     0.000,     0.000,     0.000,     0.000,   1,1, 0
   68,'1 ',1,   1,   1,     4.522,     1.904,     0.000,     0.000,     0.000,     0.000,   1,1, 0
   69,'1 ',1,   1,   1,     2.058,     0.938,     0.000,     0.000,     0.000,     0.000,   1,1, 0
   70,'1 ',1,   1,   1,    21.266,     7.126,     0.000,     0.000,     0.000,     0.000,   1,1, 0
   71,'1 ',1,   1,   1,     7.084,     2.926,     0.000,     0.000,     0.000,     0.000,   1,1, 0
   72,'1 ',1,   1,   1,    14.966,     4.977,     0.000,     0.000,     0.000,     0.000,   1,1, 0
   73,'1 ',1,   1,   1,    25.221,     7.140,     0.000,     0.000,     0.000,     0.000,   1,1, 0
   74,'1 ',1,   1,   1,    11.732,     4.452,     0.000,     0.000,     0.000,     0.000,   1,1, 0
   75,'1 ',1,   1,   1,     6.916,     2.723,     0.000,     0.000,     0.000,     0.000,   1,1, 0
   76,'1 ',1,   1,   1,     9.338,     3.003,     0.000,     0.000,     0.000,     0.000,   1,1, 0
   77,'1 ',1,   1,   1,    17.150,     5.215,     0.000,     0.000,     0.000,     0.000,   1,1, 0
   78,'1 ',1,   1,   1,     6.580,     2.884,     0.000,     0.000,     0.000,     0.000,   1,1, 0
   79,'1 ',1,   1,   1,     2.359,     1.078,     0.000,     0.000,     0.000,     0.000,   1,1, 0
   80,'1 ',1,   1,   1,     0.763,     0.371,     0.000,     0.000,     0.000,     0.000,   1,1, 0
   81,'1 ',1,   1,   1,     2.548,     1.141,     0.000,     0.000,     0.000,     0.000,   1,1, 0
   82,'1 ',1,   1,   1,     6.692,     2.716,     0.000,     0.000,     0.000,     0.000,   1,1, 0
   83,'1 ',1,   1,   1,     0.812,     0.392,     0.000,     0.000,     0.000,     0.000,   1,1, 0
   84,'1 ',1,   1,   1,     5.663,     2.450,     0.000,     0.000,     0.000,     0.000,   1,1, 0
   85,'1 ',1,   1,   1,     2.471,     1.148,     0.000,     0.000,     0.000,     0.000,   1,1, 0
   86,'1 ',1,   1,   1,     1.386,     0.644,     0.000,     0.000,     0.000,     0.000,   1,1, 0
   87,'1 ',1,   1,   1,     1.393,     0.658,     0.000,     0.000,     0.000,     0.000,   1,1, 0
   88,'1 ',1,   1,   1,     3.164,     1.085,     0.000,     0.000,     0.000,     0.000,   1,1, 0
   89,'1 ',1,   1,   1,     2.114,     0.903,     0.000,     0.000,     0.000,     0.000,   1,1, 0
   90,'1 ',1,   1,   1,    10.409,     3.843,     0.000,     0.000,     0.000,     0.000,   1,1, 0
   91,'1 ',1,   1,   1,     3.556,     1.449,     0.000,     0.000,     0.000,     0.000,   1,1, 0
   92,'1 ',1,   1,   1,    10.920,     3.479,     0.000,     0.000,     0.000,     0.000,   1,1, 0
   93,'1 ',1,   1,   1,     4.361,     1.729,     0.000,     0.000,     0.000,     0.000,   1,1, 0
   94,'1 ',1,   1,   1,    12.824,     4.529,     0.000,     0.000,     0.000,     0.000,   1,1, 0
   95,'1 ',1,   1,   1,    18.865,     6.027,     0.000,     0.000,     0.000,     0.000,   1,1, 0
   96,'1 ',1,   1,   1,    12.313,     4.627,     0.000,     0.000,     0.000,     0.000,   1,1, 0
   97,'1 ',1,   1,   1,     5.453,     2.198,     0.000,     0.000,     0.000,     0.000,   1,1, 0
   98,'1 ',1,   1,   1,     6.412,     2.618,     0.000,     0.000,     0.000,     0.000,   1,1, 0
   99,'1 ',1,   1,   1,     1.211,     0.574,     0.000,     0.000,     0.000,     0.000,   1,1, 0
  100,'1 ',1,   1,   1,     6.538,     2.688,     0.000,     0.000,     0.000,     0.000,   1,1, 0
  101,'1 ',1,   1,   1,     2.926,     1.295,     0.000,     0.000,     0.000,     0.000,   1,1, 0
  102,'1 ',1,   1,   1,     6.286,     2.569,     0.000,     0.000,     0.000,     0.000,   1,1, 0
  103,'1 ',1,   1,   1,     3.514,     1.505,     0.000,     0.000,     0.000,     0.000,   1,1, 0
  104,'1 ',1,   1,   1,     7.896,     3.353,     0.000,     0.000,     0.000,     0.000,   1,1, 0
  105,'1 ',1,   1,   1,     1.484,     0.686,     0.000,     0.000,     0.000,     0.000,   1,1, 0
  106,'1 ',1,   1,   1,     5.628,     2.310,     0.000,     0.000,     0.000,     0.000,   1,1, 0
  107,'1 ',1,   1,   1,     4.123,     1.855,     0.000,     0.000,     0.000,     0.000,   1,1, 0
  108,'1 ',1,   1,   1,     4.767,     2.030,     0.000,     0.000,     0.000,     0.000,   1,1, 0
  109,'1 ',1,   1,   1,     3.269,     1.519,     0.000,     0.000,     0.000,     0.000,   1,1, 0
  110,'1 ',1,   1,   1,     3.255,     1.407,     0.000,     0.000,     0.000,     0.000,   1,1, 0
  111,'1 ',1,   1,   1,     2.590,     1.057,     0.000,     0.000,     0.000,     0.000,   1,1, 0
  112,'1 ',1,   1,   1,     2.618,     1.239,     0.000,     0.000,     0.000,     0.000,   1,1, 0
  113,'1 ',1,   1,   1,     4.459,     1.932,     0.000,     0.000,     0.000,     0.000,   1,1, 0
  114,'1 ',1,   1,   1,     9.912,     3.409,     0.000,     0.000,     0.000,     0.000,   1,1, 0
  115,'1 ',1,   1,   1,     3.171,     1.288,     0.000,     0.000,     0.000,     0.000,   1,1, 0
  116,'1 ',1,   1,   1,     7.742,     2.352,     0.000,     0.000,     0.000,     0.000,   1,1, 0
  117,'1 ',1,   1,   1,     1.820,     0.833,     0.000,     0.000,     0.000,     0.000,   1,1, 0
  118,'1 ',1,   1,   1,    11.130,     4.557,     0.000,     0.000,     0.000,     0.000,   1,1, 0
  119,'1 ',1,   1,   1,     2.457,     1.162,     0.000,     0.000,     0.000,     0.000,   1,1, 0
  120,'1 ',1,   1,   1,    12.061,     4.851,     0.000,     0.000,     0.000,     0.000,   1,1, 0
  121,'1 ',1,   1,   1,     3.990,     1.505,     0.000,     0.000,     0.000,     0.000,   1,1, 0
  122,'1 ',1,   1,   1,     6.433,     2.338,     0.000,     0.000,     0.000,     0.000,   1,1, 0
  123,'1 ',1,   1,   1,     3.997,     1.827,     0.000,     0.000,     0.000,     0.000,   1,1, 0
  124,'1 ',1,   1,   1,    15.589,     6.076,     0.000,     0.000,     0.000,     0.000,   1,1, 0
  125,'1 ',1,   1,   1,     5.859,     2.611,     0.000,     0.000,     0.000,     0.000,   1,1, 0
  126,'1 ',1,   1,   1,     5.705,     2.513,     0.000,     0.000,     0.000,     0.000,   1,1, 0
  127,'1 ',1,   1,   1,    10.829,     3.934,     0.000,     0.000,     0.000,     0.000,   1,1, 0
  128,'1 ',1,   1,   1,     3.808,     1.813,     0.000,     0.000,     0.000,     0.000,   1,1, 0
  129,'1 ',1,   1,   1,    12.768,     4.102,     0.000,     0.000,     0.000,     0.000,   1,1, 0
  130,'1 ',1,   1,   1,    18.018,     5.635,     0.000,     0.000,     0.000,     0.000,   1,1, 0
  131,'1 ',1,   1,   1,     3.297,     1.582,     0.000,     0.000,     0.000,     0.000,   1,1, 0
  132,'1 ',1,   1,   1,     4.053,     1.876,     0.000,     0.000,     0.000,     0.000,   1,1, 0
  133,'1 ',1,   1,   1,     2.751,     1.330,     0.000,     0.000,     0.000,     0.000,   1,1, 0
  134,'1 ',1,   1,   1,    17.101,     5.838,     0.000,     0.000,     0.000,     0.000,   1,1, 0
  135,'1 ',1,   1,   1,     5.684,     2.632,     0.000,     0.000,     0.000,     0.000,   1,1, 0
  136,'1 ',1,   1,   1,     2.422,     1.176,     0.000,     0.000,     0.000,     0.000,   1,1, 0
  137,'1 ',1,   1,   1,     8.540,     3.171,     0.000,     0.000,     0.000,     0.000,   1,1, 0
  138,'1 ',1,   1,   1,    10.276,     4.417,     0.000,     0.000,     0.000,     0.000,   1,1, 0
  139,'1 ',1,   1,   1,    17.661,     6.209,     0.000,     0.000,     0.000,     0.000,   1,1, 0
  140,'1 ',1,   1,   1,     2.961,     1.309,     0.000,     0.000,     0.000,     0.000,   1,1, 0
  141,'1 ',1,   1,   1,     1.862,     0.868,     0.000,     0.000,     0.000,     0.000,   1,1, 0
  142,'1 ',1,   1,   1,     0.602,     0.294,     0.000,     0.000,     0.000,     0.000,   1,1, 0
  143,'1 ',1,   1,   1,     2.842,     1.379,     0.000,     0.000,     0.000,     0.000,   1,1, 0
  144,'1 ',1,   1,   1,     2.541,     1.169,     0.000,     0.000,     0.000,     0.000,   1,1, 0
  145,'1 ',1,   1,   1,     5.376,     2.436,     0.000,     0.000,     0.000,     0.000,   1,1, 0
  146,'1 ',1,   1,   1,    49.966,    16.989,     0.000,     0.000,     0.000,     0.000,   1,1, 0
  147,'1 ',1,   1,   1,    13.083,     3.983,     0.000,     0.000,     0.000,     0.000,   1,1, 0
  148,'1 ',1,   1,   1,     9.037,     3.444,     0.000,     0.000,     0.000,     0.000,   1,1, 0
  149,'1 ',1,   1,   1,     2.380,     1.064,     0.000,     0.000,     0.000,     0.000,   1,1, 0
  150,'1 ',1,   1,   1,    12.957,     4.697,     0.000,     0.000,     0.000,     0.000,   1,1, 0
  151,'1 ',1,   1,   1,    20.909,     8.078,     0.000,     0.000,     0.000,     0.000,   1,1, 0
  152,'1 ',1,   1,   1,     3.332,     1.470,     0.000,     0.000,     0.000,     0.000,   1,1, 0
  153,'1 ',1,   1,   1,     7.315,     2.751,     0.000,     0.000,     0.000,     0.000,   1,1, 0
  154,'1 ',1,   1,   1,    12.208,     4.550,     0.000,     0.000,     0.000,     0.000,   1,1, 0
  155,'1 ',1,   1,   1,     1.687,     0.805,     0.000,     0.000,     0.000,     0.000,   1,1, 0
  156,'1 ',1,   1,   1,     4.109,     1.687,     0.000,     0.000,     0.000,     0.000,   1,1, 0
  157,'1 ',1,   1,   1,     8.610,     3.346,     0.000,     0.000,     0.000,     0.000,   1,1, 0
  158,'1 ',1,   1,   1,     4.291,     1.855,     0.000,     0.000,     0.000,     0.000,   1,1, 0
  159,'1 ',1,   1,   1,     1.057,     0.511,     0.000,     0.000,     0.000,     0.000,   1,1, 0
  160,'1 ',1,   1,   1,     1.729,     0.805,     0.000,     0.000,     0.000,     0.000,   1,1, 0
  161,'1 ',1,   1,   1,     3.787,     1.575,     0.000,     0.000,     0.000,     0.000,   1,1, 0
  162,'1 ',1,   1,   1,     6.328,     2.289,     0.000,     0.000,     0.000,     0.000,   1,1, 0
  163,'1 ',1,   1,   1,     8.330,     3.311,     0.000,     0.000,     0.000,     0.000,   1,1, 0
  164,'1 ',1,   1,   1,    15.204,     4.725,     0.000,     0.000,     0.000,     0.000,   1,1, 0
  165,'1 ',1,   1,   1,     3.710,     1.603,     0.000,     0.000,     0.000,     0.000,   1,1, 0
  166,'1 ',1,   1,   1,     2.142,     1.036,     0.000,     0.000,     0.000,     0.000,   1,1, 0
  167,'1 ',1,   1,   1,     2.471,     1.169,     0.000,     0.000,     0.000,     0.000,   1,1, 0
  168,'1 ',1,   1,   1,     4.102,     1.918,     0.000,     0.000,     0.000,     0.000,   1,1, 0
  169,'1 ',1,   1,   1,     1.652,     0.798,     0.000,     0.000,     0.000,     0.000,   1,1, 0
  170,'1 ',1,   1,   1,     1.890,     0.917,     0.000,     0.000,     0.000,     0.000,   1,1, 0
  171,'1 ',1,   1,   1,    18.788,     6.349,     0.000,     0.000,     0.000,     0.000,   1,1, 0
  172,'1 ',1,   1,   1,    10.626,     3.752,     0.000,     0.000,     0.000,     0.000,   1,1, 0
  173,'1 ',1,   1,   1,     2.282,     1.106,     0.000,     0.000,     0.000,     0.000,   1,1, 0
  174,'1 ',1,   1,   1,     3.787,     1.771,     0.000,     0.000,     0.000,     0.000,   1,1, 0
  175,'1 ',1,   1,   1,    13.083,     5.509,     0.000,     0.000,     0.000,     0.000,   1,1, 0
  176,'1 ',1,   1,   1,     4.704,     2.219,     0.000,     0.000,     0.000,     0.000,   1,1, 0
  177,'1 ',1,   1,   1,     5.810,     2.590,     0.000,     0.000,     0.000,     0.000,   1,1, 0
  178,'1 ',1,   1,   1,     2.730,     1.267,     0.000,     0.000,     0.000,     0.000,   1,1, 0
  179,'1 ',1,   1,   1,    11.543,     4.746,     0.000,     0.000,     0.000,     0.000,   1,1, 0
  180,'1 ',1,   1,   1,     5.663,     2.240,     0.000,     0.000,     0.000,     0.000,   1,1, 0
  181,'1 ',1,   1,   1,     6.139,     2.492,     0.000,     0.000,     0.000,     0.000,   1,1, 0
  182,'1 ',1,   1,   1,     4.851,     2.037,     0.000,     0.000,     0.000,     0.000,   1,1, 0
  183,'1 ',1,   1,   1,     7.168,     2.611,     0.000,     0.000,     0.000,     0.000,   1,1, 0
  184,'1 ',1,   1,   1,     5.355,     2.366,     0.000,     0.000,     0.000,     0.000,   1,1, 0
  185,'1 ',1,   1,   1,     4.144,     1.743,     0.000,     0.000,     0.000,     0.000,   1,1, 0
  186,'1 ',1,   1,   1,    10.136,     3.612,     0.000,     0.000,     0.000,     0.000,   1,1, 0
  187,'1 ',1,   1,   1,     1.750,     0.847,     0.000,     0.000,     0.000,     0.000,   1,1, 0
  188,'1 ',1,   1,   1,    13.265,     4.032,     0.000,     0.000,     0.000,     0.000,   1,1, 0
  189,'1 ',1,   1,   1,     8.442,     3.213,     0.000,     0.000,     0.000,     0.000,   1,1, 0
  190,'1 ',1,   1,   1,     6.468,     2.261,     0.000,     0.000,     0.000,     0.000,   1,1, 0
  191,'1 ',1,   1,   1,    20.342,     6.314,     0.000,     0.000,     0.000,     0.000,   1,1, 0
  192,'1 ',1,   1,   1,     6.209,     2.401,     0.000,     0.000,     0.000,     0.000,   1,1, 0
  193,'1 ',1,   1,   1,     3.633,     1.617,     0.000,     0.000,     0.000,     0.000,   1,1, 0
  194,'1 ',1,   1,   1,     3.276,     1.554,     0.000,     0.000,     0.000,     0.000,   1,1, 0
  195,'1 ',1,   1,   1,     6.174,     2.548,     0.000,     0.000,     0.000,     0.000,   1,1, 0
  196,'1 ',1,   1,   1,     2.905,     1.344,     0.000,     0.000,     0.000,     0.000,   1,1, 0
  197,'1 ',1,   1,   1,     5.348,     2.058,     0.000,     0.000,     0.000,     0.000,   1,1, 0
  198,'1 ',1,   1,   1,    13.937,     4.781,     0.000,     0.000,     0.000,     0.000,   1,1, 0
  199,'1 ',1,   1,   1,     1.729,     0.819,     0.000,     0.000,     0.000,     0.000,   1,1, 0
  200,'1 ',1,   1,   1,     1.624,     0.756,     0.000,     0.000,     0.000,     0.000,   1,1, 0
...
0 / END OF LOAD DATA, BEGIN FIXED SHUNT DATA
0 / END OF FIXED SHUNT DATA, BEGIN GENERATOR DATA
    1,'1 ',  1214.966,   -27.894,   466.800,  -422.700,1.02000,    0,   100.000,   0.00000,   1.00000,   0.00000,   0.00000,1.00000,1,  100.0,  1286.000,   300.000,   1,1.0000,   0,1.0000,   0,1.0000,   0,1.0000,0, 1.0000
    2,'1 ',   892.200,   179.906,   683.200,  -407.600,1.02000,    0,   100.000,   0.00000,   1.00000,   0.00000,   0.00000,1.00000,1,  100.0,  1240.000,   480.000,   1,1.0000,   0,1.0000,   0,1.0000,   0,1.0000,0, 1.0000
    3,'1 ',   657.500,   209.373,   764.300,  -405.300,1.02000,    0,   100.000,   0.00000,   1.00000,   0.00000,   0.00000,1.00000,1,  100.0,  1233.200,   600.000,   1,1.0000,   0,1.0000,   0,1.0000,   0,1.0000,0, 1.0000
    4,'1 ',   280.000,    52.570,   374.550,  -198.650,1.02000,    0,   100.000,   0.00000,   1.00000,   0.00000,   0.00000,1.00000,1,  100.0,   604.400,   280.000,   1,1.0000,   0,1.0000,   0,1.0000,   0,1.0000,0, 1.0000
    4,'2 ',   280.000,    52.570,   374.550,  -198.650,1.02000,    0,   100.000,   0.00000,   1.00000,   0.00000,   0.00000,1.00000,1,  100.0,   604.400,   280.000,   1,1.0000,   0,1.0000,   0,1.0000,   0,1.0000,0, 1.0000
    5,'1 ',   895.800,   -76.367,   538.600,  -365.500,1.02000,    0,   100.000,   0.00000,   1.00000,   0.00000,   0.00000,1.00000,1,  100.0,  1112.000,   300.000,   1,1.0000,   0,1.0000,   0,1.0000,   0,1.0000,0, 1.0000
    6,'1 ',   903.500,  -255.354,   627.400,  -357.300,1.02000,    0,   100.000,   0.00000,   1.00000,   0.00000,   0.00000,1.00000,1,  100.0,  1087.100,   433.000,   1,1.0000,   0,1.0000,   0,1.0000,   0,1.0000,0, 1.0000
    7,'1 ',   398.400,    50.275,   403.800,  -274.000,1.02000,    0,   100.000,   0.00000,   1.00000,   0.00000,   0.00000,1.00000,1,  100.0,   833.700,   251.000,   1,1.0000,   0,1.0000,   0,1.0000,   0,1.0000,0, 1.0000
    8,'1 ',   383.300,   162.751,   434.600,  -230.500,1.02000,    0,   100.000,   0.00000,   1.00000,   0.00000,   0.00000,1.00000,1,  100.0,   701.300,   312.000,   1,1.0000,   0,1.0000,   0,1.0000,   0,1.0000,0, 1.0000
    9,'1 ',   265.000,    40.974,   418.300,  -221.800,1.02000,    0,   100.000,   0.00000,   1.00000,   0.00000,   0.00000,1.00000,1,  100.0,   674.900,   265.000,   1,1.0000,   0,1.0000,   0,1.0000,   0,1.0000,0, 1.0000
   10,'1 ',   450.000,   -56.996,   383.500,  -203.400,1.02000,    0,   100.000,   0.00000,   1.00000,   0.00000,   0.00000,1.00000,1,  100.0,   618.800,   450.000,   1,1.0000,   0,1.0000,   0,1.0000,   0,1.0000,0, 1.0000
   11,'1 ',   306.000,   -22.541,   347.700,  -184.400,1.02000,    0,   100.000,   0.00000,   1.00000,   0.00000,   0.00000,1.00000,1,  100.0,   561.000,   306.000,   1,1.0000,   0,1.0000,   0,1.0000,   0,1.0000,0, 1.0000
   12,'1 ',   216.400,     4.809,   187.400,  -127.200,1.02000,    0,   100.000,   0.00000,   1.00000,   0.00000,   0.00000,1.00000,1,  100.0,   387.000,   125.000,   1,1.0000,   0,1.0000,   0,1.0000,   0,1.0000,0, 1.0000
   13,'1 ',   200.000,    71.481,   286.200,  -125.400,1.02000,    0,   100.000,   0.00000,   1.00000,   0.00000,   0.00000,1.00000,1,  100.0,   381.600,   200.000,   1,1.0000,   0,1.0000,   0,1.0000,   0,1.0000,0, 1.0000
   14,'1 ',   137.200,    56.038,   286.200,  -125.400,1.02000,    0,   100.000,   0.00000,   1.00000,   0.00000,   0.00000,1.00000,1,  100.0,   381.600,    80.000,   1,1.0000,   0,1.0000,   0,1.0000,   0,1.0000,0, 1.0000
   15,'1 ',   200.000,   196.269,   286.200,  -125.400,1.02000,    0,   100.000,   0.00000,   1.00000,   0.00000,   0.00000,1.00000,1,  100.0,   381.600,   200.000,   1,1.0000,   0,1.0000,   0,1.0000,   0,1.0000,0, 1.0000
   16,'1 ',   200.000,    96.444,   229.900,  -121.900,1.02000,    0,   100.000,   0.00000,   1.00000,   0.00000,   0.00000,1.00000,1,  100.0,   371.000,   200.000,   1,1.0000,   0,1.0000,   0,1.0000,   0,1.0000,0, 1.0000
   17,'1 ',   146.600,   -14.344,   232.600,  -115.100,1.02000,    0,   100.000,   0.00000,   1.00000,   0.00000,   0.00000,1.00000,1,  100.0,   350.200,    66.000,   1,1.0000,   0,1.0000,   0,1.0000,   0,1.0000,0, 1.0000
   18,'1 ',   200.000,   -14.635,   214.900,  -114.000,1.02000,    0,   100.000,   0.00000,   1.00000,   0.00000,   0.00000,1.00000,1,  100.0,   346.800,   200.000,   1,1.0000,   0,1.0000,   0,1.0000,   0,1.0000,0, 1.0000
   19,'1 ',   231.900,    20.661,   167.400,  -113.600,1.02000,    0,   100.000,   0.00000,   1.00000,   0.00000,   0.00000,1.00000,1,  100.0,   345.600,   150.000,   1,1.0000,   0,1.0000,   0,1.0000,   0,1.0000,0, 1.0000
   20,'1 ',   175.000,    40.400,    40.400,   -93.200,1.02000,    0,   100.000,   0.00000,   1.00000,   0.00000,   0.00000,1.00000,1,  100.0,   283.500,   175.000,   1,1.0000,   0,1.0000,   0,1.0000,   0,1.0000,0, 1.0000
   21,'1 ',   120.000,   118.600,   118.600,   -80.500,1.02000,    0,   100.000,   0.00000,   1.00000,   0.00000,   0.00000,1.00000,1,  100.0,   244.800,   120.000,   1,1.0000,   0,1.0000,   0,1.0000,   0,1.0000,0, 1.0000
   22,'1 ',   145.900,    -2.702,   140.800,   -74.700,1.02000,    0,   100.000,   0.00000,   1.00000,   0.00000,   0.00000,1.00000,1,  100.0,   227.200,    56.000,   1,1.0000,   0,1.0000,   0,1.0000,   0,1.0000,0, 1.0000
   23,'1 ',    77.800,   -19.199,   120.200,   -63.800,1.02000,    0,   100.000,   0.00000,   1.00000,   0.00000,   0.00000,1.00000,1,  100.0,   194.000,    40.000,   1,1.0000,   0,1.0000,   0,1.0000,   0,1.0000,0, 1.0000
   24,'1 ',    60.000,    31.035,   119.200,   -63.200,1.02000,    0,   100.000,   0.00000,   1.00000,   0.00000,   0.00000,1.00000,1,  100.0,   192.300,    60.000,   1,1.0000,   0,1.0000,   0,1.0000,   0,1.0000,0, 1.0000
   25,'1 ',    87.000,    22.750,    90.600,   -61.500,1.02000,    0,   100.000,   0.00000,   1.00000,   0.00000,   0.00000,1.00000,1,  100.0,   187.100,    87.000,   1,1.0000,   0,1.0000,   0,1.0000,   0,1.0000,0, 1.0000
   26,'1 ',    73.800,     5.004,   118.100,   -59.500,1.02000,    0,   100.000,   0.00000,   1.00000,   0.00000,   0.00000,1.00000,1,  100.0,   181.000,    63.000,   1,1.0000,   0,1.0000,   0,1.0000,   0,1.0000,0, 1.0000
   27,'1 ',    92.800,    70.486,    82.000,   -55.600,1.02000,    0,   100.000,   0.00000,   1.00000,   0.00000,   0.00000,1.00000,1,  100.0,   169.300,    65.000,   1,1.0000,   0,1.0000,   0,1.0000,   0,1.0000,0, 1.0000
   28,'1 ',    79.200,    22.470,    89.500,   -55.500,1.02000,    0,   100.000,   0.00000,   1.00000,   0.00000,   0.00000,1.00000,1,  100.0,   168.900,    79.200,   1,1.0000,   0,1.0000,   0,1.0000,   0,1.0000,0, 1.0000
   29,'1 ',    44.000,    76.300,    76.300,   -51.800,1.02000,    0,   100.000,   0.00000,   1.00000,   0.00000,   0.00000,1.00000,1,  100.0,   157.600,    44.000,   1,1.0000,   0,1.0000,   0,1.0000,   0,1.0000,0, 1.0000
   30,'1 ',    27.000,     8.096,    76.800,   -49.300,1.02000,    0,   100.000,   0.00000,   1.00000,   0.00000,   0.00000,1.00000,1,  100.0,   150.000,    27.000,   1,1.0000,   0,1.0000,   0,1.0000,   0,1.0000,0, 1.0000
   31,'1 ',     0.000,    25.192,    70.300,   -47.700,1.02000,    0,   100.000,   0.00000,   1.00000,   0.00000,   0.00000,1.00000,1,  100.0,   145.200,     0.000,   1,1.0000,   0,1.0000,   0,1.0000,   0,1.0000,1, 1.0000
   32,'1 ',    25.000,    84.300,    84.300,   -44.700,1.02000,    0,   100.000,   0.00000,   1.00000,   0.00000,   0.00000,1.00000,1,  100.0,   136.000,    25.000,   1,1.0000,   0,1.0000,   0,1.0000,   0,1.0000,0, 1.0000
   33,'1 ',    25.000,    84.300,    84.300,   -44.700,1.02000,    0,   100.000,   0.00000,   1.00000,   0.00000,   0.00000,1.00000,1,  100.0,   136.000,    25.000,   1,1.0000,   0,1.0000,   0,1.0000,   0,1.0000,0, 1.0000
   34,'1 ',    15.000,    28.817,    83.200,   -42.400,1.02000,    0,   100.000,   0.00000,   1.00000,   0.00000,   0.00000,1.00000,1,  100.0,   129.000,    15.000,   1,1.0000,   0,1.0000,   0,1.0000,   0,1.0000,0, 1.0000
   35,'1 ',     0.800,    39.848,    62.500,   -42.400,1.02000,    0,   100.000,   0.00000,   1.00000,   0.00000,   0.00000,1.00000,1,  100.0,   129.000,     0.000,   1,1.0000,   0,1.0000,   0,1.0000,   0,1.0000,1, 1.0000
   36,'1 ',    50.000,     1.502,    65.800,   -34.900,1.02000,    0,   100.000,   0.00000,   1.00000,   0.00000,   0.00000,1.00000,1,  100.0,   106.200,    50.000,   1,1.0000,   0,1.0000,   0,1.0000,   0,1.0000,0, 1.0000
   37,'1 ',    10.000,    23.085,    62.000,   -32.900,1.02000,    0,   100.000,   0.00000,   1.00000,   0.00000,   0.00000,1.00000,1,  100.0,   100.000,    10.000,   1,1.0000,   0,1.0000,   0,1.0000,   0,1.0000,0, 1.0000
   38,'1 ',    55.000,    26.196,    56.400,   -29.900,1.02000,    0,   100.000,   0.00000,   1.00000,   0.00000,   0.00000,1.00000,1,  100.0,    91.000,    55.000,   1,1.0000,   0,1.0000,   0,1.0000,   0,1.0000,0, 1.0000
   39,'1 ',    58.900,    56.300,    56.300,   -29.900,1.02000,    0,   100.000,   0.00000,   1.00000,   0.00000,   0.00000,1.00000,1,  100.0,    90.900,    50.000,   1,1.0000,   0,1.0000,   0,1.0000,   0,1.0000,0, 1.0000
   40,'1 ',    50.000,     9.449,    51.400,   -27.300,1.02000,    0,   100.000,   0.00000,   1.00000,   0.00000,   0.00000,1.00000,1,  100.0,    83.000,    50.000,   1,1.0000,   0,1.0000,   0,1.0000,   0,1.0000,0, 1.0000
   41,'1 ',    28.700,    45.192,    48.000,   -25.500,1.02000,    0,   100.000,   0.00000,   1.00000,   0.00000,   0.00000,1.00000,1,  100.0,    77.500,    28.700,   1,1.0000,   0,1.0000,   0,1.0000,   0,1.0000,0, 1.0000
   42,'1 ',    36.000,   -25.100,    39.700,   -25.100,1.02000,    0,   100.000,   0.00000,   1.00000,   0.00000,   0.00000,1.00000,1,  100.0,    76.300,    36.000,   1,1.0000,   0,1.0000,   0,1.0000,   0,1.0000,0, 1.0000
   43,'1 ',    27.200,     5.703,    55.100,   -24.100,1.02000,    0,   100.000,   0.00000,   1.00000,   0.00000,   0.00000,1.00000,1,  100.0,    73.400,    27.200,   1,1.0000,   0,1.0000,   0,1.0000,   0,1.0000,0, 1.0000
   44,'1 ',    64.700,    16.406,    44.800,   -23.800,1.02000,    0,   100.000,   0.00000,   1.00000,   0.00000,   0.00000,1.00000,1,  100.0,    72.300,    64.700,   1,1.0000,   0,1.0000,   0,1.0000,   0,1.0000,0, 1.0000
   45,'1 ',    48.000,    20.884,    53.300,   -23.300,1.02000,    0,   100.000,   0.00000,   1.00000,   0.00000,   0.00000,1.00000,1,  100.0,    71.000,    41.800,   1,1.0000,   0,1.0000,   0,1.0000,   0,1.0000,0, 1.0000
   46,'1 ',    67.700,     6.898,    32.800,   -22.300,1.02000,    0,   100.000,   0.00000,   1.00000,   0.00000,   0.00000,1.00000,1,  100.0,    67.700,     1.700,   1,1.0000,   0,1.0000,   0,1.0000,   0,1.0000,1, 1.0000
   47,'1 ',    21.000,    16.186,    42.000,   -21.900,1.02000,    0,   100.000,   0.00000,   1.00000,   0.00000,   0.00000,1.00000,1,  100.0,    66.500,    21.000,   1,1.0000,   0,1.0000,   0,1.0000,   0,1.0000,0, 1.0000
   48,'1 ',    55.300,    23.817,    41.800,   -20.200,1.02000,    0,   100.000,   0.00000,   1.00000,   0.00000,   0.00000,1.00000,1,  100.0,    61.600,    55.300,   1,1.0000,   0,1.0000,   0,1.0000,   0,1.0000,0, 1.0000
   49,'1 ',    16.000,    21.903,    37.500,   -19.900,1.02000,    0,   100.000,   0.00000,   1.00000,   0.00000,   0.00000,1.00000,1,  100.0,    60.500,    16.000,   1,1.0000,   0,1.0000,   0,1.0000,   0,1.0000,0, 1.0000
   50,'1 ',    15.000,    11.650,    23.500,   -19.700,1.02000,    0,   100.000,   0.00000,   1.00000,   0.00000,   0.00000,1.00000,1,  100.0,    59.800,    15.000,   1,1.0000,   0,1.0000,   0,1.0000,   0,1.0000,0, 1.0000
   51,'1 ',     9.600,    35.700,    35.700,   -18.900,1.02000,    0,   100.000,   0.00000,   1.00000,   0.00000,   0.00000,1.00000,1,  100.0,    57.600,     6.000,   1,1.0000,   0,1.0000,   0,1.0000,   0,1.0000,0, 1.0000
   52,'1 ',    12.000,    22.898,    40.500,   -17.700,1.02000,    0,   100.000,   0.00000,   1.00000,   0.00000,   0.00000,1.00000,1,  100.0,    54.000,    12.000,   1,1.0000,   0,1.0000,   0,1.0000,   0,1.0000,0, 1.0000
   53,'1 ',     0.000,    40.500,    40.500,   -17.700,1.02000,    0,   100.000,   0.00000,   1.00000,   0.00000,   0.00000,1.00000,1,  100.0,    54.000,     0.000,   1,1.0000,   0,1.0000,   0,1.0000,   0,1.0000,0, 1.0000
   54,'1 ',     2.600,    26.200,    26.200,   -17.700,1.02000,    0,   100.000,   0.00000,   1.00000,   0.00000,   0.00000,1.00000,1,  100.0,    54.000,     2.600,   1,1.0000,   0,1.0000,   0,1.0000,   0,1.0000,1, 1.0000
   55,'1 ',     4.000,    11.049,    35.200,   -17.400,1.02000,    0,   100.000,   0.00000,   1.00000,   0.00000,   0.00000,1.00000,1,  100.0,    53.000,     4.000,   1,1.0000,   0,1.0000,   0,1.0000,   0,1.0000,0, 1.0000
   56,'1 ',     9.000,    25.600,    25.600,   -16.400,1.02000,    0,   100.000,   0.00000,   1.00000,   0.00000,   0.00000,1.00000,1,  100.0,    50.000,     9.000,   1,1.0000,   0,1.0000,   0,1.0000,   0,1.0000,0, 1.0000
   57,'1 ',    22.100,    20.200,    20.200,   -13.700,1.02000,    0,   100.000,   0.00000,   1.00000,   0.00000,   0.00000,1.00000,1,  100.0,    41.700,    10.000,   1,1.0000,   0,1.0000,   0,1.0000,   0,1.0000,0, 1.0000
   58,'1 ',    22.200,    21.683,    25.800,   -13.700,1.02000,    0,   100.000,   0.00000,   1.00000,   0.00000,   0.00000,1.00000,1,  100.0,    41.600,     6.000,   1,1.0000,   0,1.0000,   0,1.0000,   0,1.0000,0, 1.0000
   59,'1 ',    21.000,   -13.100,    22.700,   -13.100,1.02000,    0,   100.000,   0.00000,   1.00000,   0.00000,   0.00000,1.00000,1,  100.0,    40.000,    21.000,   1,1.0000,   0,1.0000,   0,1.0000,   0,1.0000,0, 1.0000
   60,'1 ',     9.000,    18.822,    27.500,   -13.000,1.02000,    0,   100.000,   0.00000,   1.00000,   0.00000,   0.00000,1.00000,1,  100.0,    39.400,     9.000,   1,1.0000,   0,1.0000,   0,1.0000,   0,1.0000,0, 1.0000
   61,'1 ',     8.900,    13.806,    17.300,   -11.600,1.02000,    0,   100.000,   0.00000,   1.00000,   0.00000,   0.00000,1.00000,1,  100.0,    35.300,     8.900,   1,1.0000,   0,1.0000,   0,1.0000,   0,1.0000,0, 1.0000
   62,'1 ',     4.000,    26.300,    26.300,   -11.500,1.02000,    0,   100.000,   0.00000,   1.00000,   0.00000,   0.00000,1.00000,1,  100.0,    35.000,     4.000,   1,1.0000,   0,1.0000,   0,1.0000,   0,1.0000,0, 1.0000
   63,'1 ',     8.400,    10.293,    16.400,   -11.100,1.02000,    0,   100.000,   0.00000,   1.00000,   0.00000,   0.00000,1.00000,1,  100.0,    33.900,     8.400,   1,1.0000,   0,1.0000,   0,1.0000,   0,1.0000,0, 1.0000
   64,'1 ',     4.000,    15.456,    19.800,   -10.700,1.02000,    0,   100.000,   0.00000,   1.00000,   0.00000,   0.00000,1.00000,1,  100.0,    32.600,     4.000,   1,1.0000,   0,1.0000,   0,1.0000,   0,1.0000,0, 1.0000
   65,'1 ',     6.900,    23.600,    23.600,   -10.300,1.02000,    0,   100.000,   0.00000,   1.00000,   0.00000,   0.00000,1.00000,1,  100.0,    31.400,     6.400,   1,1.0000,   0,1.0000,   0,1.0000,   0,1.0000,0, 1.0000
   66,'1 ',    12.000,    17.200,    17.200,   -10.000,1.02000,    0,   100.000,   0.00000,   1.00000,   0.00000,   0.00000,1.00000,1,  100.0,    30.400,    12.000,   1,1.0000,   0,1.0000,   0,1.0000,   0,1.0000,0, 1.0000
   67,'1 ',    30.000,    12.741,    14.500,    -9.900,1.02000,    0,   100.000,   0.00000,   1.00000,   0.00000,   0.00000,1.00000,1,  100.0,    30.000,     0.000,   1,1.0000,   0,1.0000,   0,1.0000,   0,1.0000,1, 1.0000
   68,'1 ',    15.000,    -8.900,    16.900,    -8.900,1.02000,    0,   100.000,   0.00000,   1.00000,   0.00000,   0.00000,1.00000,1,  100.0,    27.200,    15.000,   1,1.0000,   0,1.0000,   0,1.0000,   0,1.0000,0, 1.0000
   69,'1 ',     4.000,    13.312,    15.500,    -8.200,1.02000,    0,   100.000,   0.00000,   1.00000,   0.00000,   0.00000,1.00000,1,  100.0,    25.000,     4.000,   1,1.0000,   0,1.0000,   0,1.0000,   0,1.0000,0, 1.0000
   70,'1 ',     9.800,    18.400,    18.400,    -8.100,1.02000,    0,   100.000,   0.00000,   1.00000,   0.00000,   0.00000,1.00000,1,  100.0,    24.500,     9.800,   1,1.0000,   0,1.0000,   0,1.0000,   0,1.0000,0, 1.0000
   71,'1 ',     7.900,     8.000,     8.000,    -7.600,1.02000,    0,   100.000,   0.00000,   1.00000,   0.00000,   0.00000,1.00000,1,  100.0,    23.200,     5.800,   1,1.0000,   0,1.0000,   0,1.0000,   0,1.0000,0, 1.0000
   72,'1 ',     1.500,     3.288,    16.500,    -7.200,1.02000,    0,   100.000,   0.00000,   1.00000,   0.00000,   0.00000,1.00000,1,  100.0,    22.000,     1.500,   1,1.0000,   0,1.0000,   0,1.0000,   0,1.0000,0, 1.0000
   73,'1 ',     2.000,     0.000,     0.000,    -7.200,1.02000,    0,   100.000,   0.00000,   1.00000,   0.00000,   0.00000,1.00000,1,  100.0,    22.000,     2.000,   1,1.0000,   0,1.0000,   0,1.0000,   0,1.0000,0, 1.0000
   74,'1 ',     5.400,    13.565,    16.200,    -7.100,1.02000,    0,   100.000,   0.00000,   1.00000,   0.00000,   0.00000,1.00000,1,  100.0,    21.600,     5.400,   1,1.0000,   0,1.0000,   0,1.0000,   0,1.0000,0, 1.0000
   75,'1 ',    20.800,     7.840,    15.600,    -6.800,1.02000,    0,   100.000,   0.00000,   1.00000,   0.00000,   0.00000,1.00000,1,  100.0,    20.800,    20.800,   1,1.0000,   0,1.0000,   0,1.0000,   0,1.0000,0, 1.0000
   76,'1 ',     3.400,    15.000,    15.000,    -6.600,1.02000,    0,   100.000,   0.00000,   1.00000,   0.00000,   0.00000,1.00000,1,  100.0,    20.000,     0.000,   1,1.0000,   0,1.0000,   0,1.0000,   0,1.0000,0, 1.0000
   77,'1 ',     4.000,    -6.600,    15.000,    -6.600,1.02000,    0,   100.000,   0.00000,   1.00000,   0.00000,   0.00000,1.00000,1,  100.0,    20.000,     4.000,   1,1.0000,   0,1.0000,   0,1.0000,   0,1.0000,0, 1.0000
   78,'1 ',    20.000,     8.817,     9.700,    -6.600,1.02000,    0,   100.000,   0.00000,   1.00000,   0.00000,   0.00000,1.00000,1,  100.0,    20.000,     0.100,   1,1.0000,   0,1.0000,   0,1.0000,   0,1.0000,1, 1.0000
0 / END OF GENERATOR DATA, BEGIN BRANCH DATA
     1,    52,'1 ',1.44036E-1,4.08929E-1,6.42901E-3,  64.00,  64.00,  64.00,  0.00000,  0.00000,  0.00000,  0.00000,1,1,  15.4,   1,1.0000,   0,1.0000,   0,1.0000,   0,1.0000
     1,   492,'1 ',1.54270E-1,3.77787E-1,6.46285E-3,  59.00,  59.00,  59.00,  0.00000,  0.00000,  0.00000,  0.00000,1,1,  14.9,   1,1.0000,   0,1.0000,   0,1.0000,   0,1.0000
     1,   545,'1 ',1.16877E-1,3.00523E-1,4.65240E-3,  59.00,  59.00,  59.00,  0.00000,  0.00000,  0.00000,  0.00000,1,1,  11.3,   1,1.0000,   0,1.0000,   0,1.0000,   0,1.0000
     2,   861,'1 ',8.51616E-2,2.91000E-1,6.33030E-3,  80.00,  80.00,  80.00,  0.00000,  0.00000,  0.00000,  0.00000,1,1,  12.9,   1,1.0000,   0,1.0000,   0,1.0000,   0,1.0000
     2,  1024,'1 ',6.27820E-2,1.45744E-1,2.77529E-3, 159.00, 159.00, 159.00,  0.00000,  0.00000,  0.00000,  0.00000,1,1,   6.1,   1,1.0000,   0,1.0000,   0,1.0000,   0,1.0000
...